PHYSICAL_PROBLEM= EULER
MATH_PROBLEM= DIRECT
RESTART_SOL= NO
MACH_NUMBER= 0.8395
AoA= 3.06
SIDESLIP_ANGLE= 0.0
FREESTREAM_PRESSURE= 101325.0
FREESTREAM_TEMPERATURE= 288.15
REF_ORIGIN_MOMENT_X= 0.25
REF_ORIGIN_MOMENT_Y= 0.00
REF_ORIGIN_MOMENT_Z= 0.00
REF_LENGTH_MOMENT= 1.0
REF_AREA= 0
REF_DIMENSIONALIZATION= FREESTREAM_VEL_EQ_ONE
MARKER_EULER= ( WING )
MARKER_FAR= ( FARFIELD )
MARKER_SYM= ( SYMMETRY )
MARKER_PLOTTING= ( WING )
MARKER_MONITORING= ( WING )
MARKER_DESIGNING= ( WING )
NUM_METHOD_GRAD= WEIGHTED_LEAST_SQUARES
OBJECTIVE_FUNCTION= LIFT
CFL_NUMBER= 5.0
CFL_ADAPT= NO
CFL_ADAPT_PARAM= ( 1.5, 0.5, 1.0, 100.0 )
RK_ALPHA_COEFF= ( 0.66667, 0.66667, 1.000000 )
EXT_ITER= 99999
LINEAR_SOLVER= FGMRES
LINEAR_SOLVER_ERROR= 1E-6
LINEAR_SOLVER_ITER= 2
REF_ELEM_LENGTH= 0.1
LIMITER_COEFF= 0.3
SHARP_EDGES_COEFF= 3.0
REF_SHARP_EDGES= 3.0
SENS_REMOVE_SHARP= YES
MGLEVEL= 0
MGCYCLE= W_CYCLE
MG_PRE_SMOOTH= ( 1, 2, 3, 3 )
MG_POST_SMOOTH= ( 0, 0, 0, 0 )
MG_CORRECTION_SMOOTH= ( 0, 0, 0, 0 )
MG_DAMP_RESTRICTION= 0.9
MG_DAMP_PROLONGATION= 0.9
CONV_NUM_METHOD_FLOW= JST
SPATIAL_ORDER_FLOW= 2ND_ORDER
SLOPE_LIMITER_FLOW= VENKATAKRISHNAN
AD_COEFF_FLOW= ( 0.15, 0.5, 0.02 )
TIME_DISCRE_FLOW= EULER_IMPLICIT
CONV_NUM_METHOD_ADJFLOW= JST
SPATIAL_ORDER_ADJFLOW= 2ND_ORDER
SLOPE_LIMITER_ADJFLOW= VENKATAKRISHNAN
AD_COEFF_ADJFLOW= ( 0.15, 0.0, 0.02 )
CFL_REDUCTION_ADJFLOW= 0.5
TIME_DISCRE_ADJFLOW= EULER_IMPLICIT
CONV_CRITERIA= RESIDUAL
RESIDUAL_REDUCTION= 8
RESIDUAL_MINVAL= -12
STARTCONV_ITER= 25
CAUCHY_ELEMS= 100
CAUCHY_EPS= 1E-10
CAUCHY_FUNC_FLOW= DRAG
MESH_FILENAME= mesh_ONERAM6_inv_ffd.su2
MESH_OUT_FILENAME= mesh_out.su2
SOLUTION_FLOW_FILENAME= restart_flow.dat
SOLUTION_ADJ_FILENAME= solution_adj.dat
MESH_FORMAT= SU2
OUTPUT_FORMAT= PARAVIEW
CONV_FILENAME= history
RESTART_FLOW_FILENAME= restart_flow.dat
RESTART_ADJ_FILENAME= restart_adj.dat
VOLUME_FLOW_FILENAME= flow
VOLUME_ADJ_FILENAME= adjoint
GRAD_OBJFUNC_FILENAME= of_grad.dat
SURFACE_FLOW_FILENAME= surface_flow
SURFACE_ADJ_FILENAME= surface_adjoint
WRT_SOL_FREQ= 100.0
WRT_CON_FREQ= 1
DV_KIND= FFD_CONTROL_POINT
DV_MARKER= ( ( WING ) )
DV_PARAM= ( MAIN_BOX, 2.0, 3.0, 1.0, 0.0, 0.0, 1.0) 
DV_VALUE= 0
DEFORM_LINEAR_SOLVER= FGMRES
DEFORM_LINEAR_ITER= 500
DEFORM_NONLINEAR_ITER= 2
DEFORM_CONSOLE_OUTPUT= NO
DEFORM_TOL_FACTOR= 0.001
DEFORM_STIFFNESS_TYPE= INVERSE_VOLUME
VISUALIZE_DEFORMATION= NO
FFD_TOLERANCE= 1E-10
FFD_ITERATIONS= 500
FFD_DEFINITION= (MAIN_BOX, -0.0403, 0.0, -0.04836, 0.8463, 0.0, -0.04836, 1.209, 1.2896, -0.04836, 0.6851, 1.2896, -0.04836, -0.0403, 0.0, 0.04836, 0.8463, 0.0, 0.04836, 1.209, 1.2896, 0.04836, 0.6851, 1.2896, 0.04836)
FFD_DEGREE= (10, 8, 1)
FFD_CONTINUITY= 2ND_DERIVATIVE
OPT_OBJECTIVE= DRAG * 1.0
OPT_CONSTRAINT= ( LIFT > 0.282557 ) * 1.0
OPT_ITERATIONS= 100
OPT_ACCURACY= 1E-6
OPT_BOUND_UPPER= 0.1
OPT_BOUND_LOWER= -0.1
DEFINITION_DV= ( 7 , 1.0 | WING  | MAIN_BOX , 0.0 , 3.0 , 0.0 , 0.0 , 0.0 , 1.0  ); ( 7 , 1.0 | WING  | MAIN_BOX , 1.0 , 3.0 , 0.0 , 0.0 , 0.0 , 1.0  ); ( 7 , 1.0 | WING  | MAIN_BOX , 2.0 , 3.0 , 0.0 , 0.0 , 0.0 , 1.0  ); ( 7 , 1.0 | WING  | MAIN_BOX , 3.0 , 3.0 , 0.0 , 0.0 , 0.0 , 1.0  ); ( 7 , 1.0 | WING  | MAIN_BOX , 4.0 , 3.0 , 0.0 , 0.0 , 0.0 , 1.0  ); ( 7 , 1.0 | WING  | MAIN_BOX , 5.0 , 3.0 , 0.0 , 0.0 , 0.0 , 1.0  ); ( 7 , 1.0 | WING  | MAIN_BOX , 6.0 , 3.0 , 0.0 , 0.0 , 0.0 , 1.0  ); ( 7 , 1.0 | WING  | MAIN_BOX , 7.0 , 3.0 , 0.0 , 0.0 , 0.0 , 1.0  ); ( 7 , 1.0 | WING  | MAIN_BOX , 8.0 , 3.0 , 0.0 , 0.0 , 0.0 , 1.0  ); ( 7 , 1.0 | WING  | MAIN_BOX , 9.0 , 3.0 , 0.0 , 0.0 , 0.0 , 1.0  ); ( 7 , 1.0 | WING  | MAIN_BOX , 10.0 , 3.0 , 0.0 , 0.0 , 0.0 , 1.0  ); ( 7 , 1.0 | WING  | MAIN_BOX , 0.0 , 4.0 , 0.0 , 0.0 , 0.0 , 1.0  ); ( 7 , 1.0 | WING  | MAIN_BOX , 1.0 , 4.0 , 0.0 , 0.0 , 0.0 , 1.0  ); ( 7 , 1.0 | WING  | MAIN_BOX , 2.0 , 4.0 , 0.0 , 0.0 , 0.0 , 1.0  ); ( 7 , 1.0 | WING  | MAIN_BOX , 3.0 , 4.0 , 0.0 , 0.0 , 0.0 , 1.0  ); ( 7 , 1.0 | WING  | MAIN_BOX , 4.0 , 4.0 , 0.0 , 0.0 , 0.0 , 1.0  ); ( 7 , 1.0 | WING  | MAIN_BOX , 5.0 , 4.0 , 0.0 , 0.0 , 0.0 , 1.0  ); ( 7 , 1.0 | WING  | MAIN_BOX , 6.0 , 4.0 , 0.0 , 0.0 , 0.0 , 1.0  ); ( 7 , 1.0 | WING  | MAIN_BOX , 7.0 , 4.0 , 0.0 , 0.0 , 0.0 , 1.0  ); ( 7 , 1.0 | WING  | MAIN_BOX , 8.0 , 4.0 , 0.0 , 0.0 , 0.0 , 1.0  ); ( 7 , 1.0 | WING  | MAIN_BOX , 9.0 , 4.0 , 0.0 , 0.0 , 0.0 , 1.0  ); ( 7 , 1.0 | WING  | MAIN_BOX , 10.0 , 4.0 , 0.0 , 0.0 , 0.0 , 1.0  ); ( 7 , 1.0 | WING  | MAIN_BOX , 0.0 , 5.0 , 0.0 , 0.0 , 0.0 , 1.0  ); ( 7 , 1.0 | WING  | MAIN_BOX , 1.0 , 5.0 , 0.0 , 0.0 , 0.0 , 1.0  ); ( 7 , 1.0 | WING  | MAIN_BOX , 2.0 , 5.0 , 0.0 , 0.0 , 0.0 , 1.0  ); ( 7 , 1.0 | WING  | MAIN_BOX , 3.0 , 5.0 , 0.0 , 0.0 , 0.0 , 1.0  ); ( 7 , 1.0 | WING  | MAIN_BOX , 4.0 , 5.0 , 0.0 , 0.0 , 0.0 , 1.0  ); ( 7 , 1.0 | WING  | MAIN_BOX , 5.0 , 5.0 , 0.0 , 0.0 , 0.0 , 1.0  ); ( 7 , 1.0 | WING  | MAIN_BOX , 6.0 , 5.0 , 0.0 , 0.0 , 0.0 , 1.0  ); ( 7 , 1.0 | WING  | MAIN_BOX , 7.0 , 5.0 , 0.0 , 0.0 , 0.0 , 1.0  ); ( 7 , 1.0 | WING  | MAIN_BOX , 8.0 , 5.0 , 0.0 , 0.0 , 0.0 , 1.0  ); ( 7 , 1.0 | WING  | MAIN_BOX , 9.0 , 5.0 , 0.0 , 0.0 , 0.0 , 1.0  ); ( 7 , 1.0 | WING  | MAIN_BOX , 10.0 , 5.0 , 0.0 , 0.0 , 0.0 , 1.0  ); ( 7 , 1.0 | WING  | MAIN_BOX , 0.0 , 6.0 , 0.0 , 0.0 , 0.0 , 1.0  ); ( 7 , 1.0 | WING  | MAIN_BOX , 1.0 , 6.0 , 0.0 , 0.0 , 0.0 , 1.0  ); ( 7 , 1.0 | WING  | MAIN_BOX , 2.0 , 6.0 , 0.0 , 0.0 , 0.0 , 1.0  ); ( 7 , 1.0 | WING  | MAIN_BOX , 3.0 , 6.0 , 0.0 , 0.0 , 0.0 , 1.0  ); ( 7 , 1.0 | WING  | MAIN_BOX , 4.0 , 6.0 , 0.0 , 0.0 , 0.0 , 1.0  ); ( 7 , 1.0 | WING  | MAIN_BOX , 5.0 , 6.0 , 0.0 , 0.0 , 0.0 , 1.0  ); ( 7 , 1.0 | WING  | MAIN_BOX , 6.0 , 6.0 , 0.0 , 0.0 , 0.0 , 1.0  ); ( 7 , 1.0 | WING  | MAIN_BOX , 7.0 , 6.0 , 0.0 , 0.0 , 0.0 , 1.0  ); ( 7 , 1.0 | WING  | MAIN_BOX , 8.0 , 6.0 , 0.0 , 0.0 , 0.0 , 1.0  ); ( 7 , 1.0 | WING  | MAIN_BOX , 9.0 , 6.0 , 0.0 , 0.0 , 0.0 , 1.0  ); ( 7 , 1.0 | WING  | MAIN_BOX , 10.0 , 6.0 , 0.0 , 0.0 , 0.0 , 1.0  ); ( 7 , 1.0 | WING  | MAIN_BOX , 0.0 , 7.0 , 0.0 , 0.0 , 0.0 , 1.0  ); ( 7 , 1.0 | WING  | MAIN_BOX , 1.0 , 7.0 , 0.0 , 0.0 , 0.0 , 1.0  ); ( 7 , 1.0 | WING  | MAIN_BOX , 2.0 , 7.0 , 0.0 , 0.0 , 0.0 , 1.0  ); ( 7 , 1.0 | WING  | MAIN_BOX , 3.0 , 7.0 , 0.0 , 0.0 , 0.0 , 1.0  ); ( 7 , 1.0 | WING  | MAIN_BOX , 4.0 , 7.0 , 0.0 , 0.0 , 0.0 , 1.0  ); ( 7 , 1.0 | WING  | MAIN_BOX , 5.0 , 7.0 , 0.0 , 0.0 , 0.0 , 1.0  ); ( 7 , 1.0 | WING  | MAIN_BOX , 6.0 , 7.0 , 0.0 , 0.0 , 0.0 , 1.0  ); ( 7 , 1.0 | WING  | MAIN_BOX , 7.0 , 7.0 , 0.0 , 0.0 , 0.0 , 1.0  ); ( 7 , 1.0 | WING  | MAIN_BOX , 8.0 , 7.0 , 0.0 , 0.0 , 0.0 , 1.0  ); ( 7 , 1.0 | WING  | MAIN_BOX , 9.0 , 7.0 , 0.0 , 0.0 , 0.0 , 1.0  ); ( 7 , 1.0 | WING  | MAIN_BOX , 10.0 , 7.0 , 0.0 , 0.0 , 0.0 , 1.0  ); ( 7 , 1.0 | WING  | MAIN_BOX , 0.0 , 8.0 , 0.0 , 0.0 , 0.0 , 1.0  ); ( 7 , 1.0 | WING  | MAIN_BOX , 1.0 , 8.0 , 0.0 , 0.0 , 0.0 , 1.0  ); ( 7 , 1.0 | WING  | MAIN_BOX , 2.0 , 8.0 , 0.0 , 0.0 , 0.0 , 1.0  ); ( 7 , 1.0 | WING  | MAIN_BOX , 3.0 , 8.0 , 0.0 , 0.0 , 0.0 , 1.0  ); ( 7 , 1.0 | WING  | MAIN_BOX , 4.0 , 8.0 , 0.0 , 0.0 , 0.0 , 1.0  ); ( 7 , 1.0 | WING  | MAIN_BOX , 5.0 , 8.0 , 0.0 , 0.0 , 0.0 , 1.0  ); ( 7 , 1.0 | WING  | MAIN_BOX , 6.0 , 8.0 , 0.0 , 0.0 , 0.0 , 1.0  ); ( 7 , 1.0 | WING  | MAIN_BOX , 7.0 , 8.0 , 0.0 , 0.0 , 0.0 , 1.0  ); ( 7 , 1.0 | WING  | MAIN_BOX , 8.0 , 8.0 , 0.0 , 0.0 , 0.0 , 1.0  ); ( 7 , 1.0 | WING  | MAIN_BOX , 9.0 , 8.0 , 0.0 , 0.0 , 0.0 , 1.0  ); ( 7 , 1.0 | WING  | MAIN_BOX , 10.0 , 8.0 , 0.0 , 0.0 , 0.0 , 1.0  ); ( 7 , 1.0 | WING  | MAIN_BOX , 0.0 , 3.0 , 1.0 , 0.0 , 0.0 , 1.0  ); ( 7 , 1.0 | WING  | MAIN_BOX , 1.0 , 3.0 , 1.0 , 0.0 , 0.0 , 1.0  ); ( 7 , 1.0 | WING  | MAIN_BOX , 2.0 , 3.0 , 1.0 , 0.0 , 0.0 , 1.0  ); ( 7 , 1.0 | WING  | MAIN_BOX , 3.0 , 3.0 , 1.0 , 0.0 , 0.0 , 1.0  ); ( 7 , 1.0 | WING  | MAIN_BOX , 4.0 , 3.0 , 1.0 , 0.0 , 0.0 , 1.0  ); ( 7 , 1.0 | WING  | MAIN_BOX , 5.0 , 3.0 , 1.0 , 0.0 , 0.0 , 1.0  ); ( 7 , 1.0 | WING  | MAIN_BOX , 6.0 , 3.0 , 1.0 , 0.0 , 0.0 , 1.0  ); ( 7 , 1.0 | WING  | MAIN_BOX , 7.0 , 3.0 , 1.0 , 0.0 , 0.0 , 1.0  ); ( 7 , 1.0 | WING  | MAIN_BOX , 8.0 , 3.0 , 1.0 , 0.0 , 0.0 , 1.0  ); ( 7 , 1.0 | WING  | MAIN_BOX , 9.0 , 3.0 , 1.0 , 0.0 , 0.0 , 1.0  ); ( 7 , 1.0 | WING  | MAIN_BOX , 10.0 , 3.0 , 1.0 , 0.0 , 0.0 , 1.0  ); ( 7 , 1.0 | WING  | MAIN_BOX , 0.0 , 4.0 , 1.0 , 0.0 , 0.0 , 1.0  ); ( 7 , 1.0 | WING  | MAIN_BOX , 1.0 , 4.0 , 1.0 , 0.0 , 0.0 , 1.0  ); ( 7 , 1.0 | WING  | MAIN_BOX , 2.0 , 4.0 , 1.0 , 0.0 , 0.0 , 1.0  ); ( 7 , 1.0 | WING  | MAIN_BOX , 3.0 , 4.0 , 1.0 , 0.0 , 0.0 , 1.0  ); ( 7 , 1.0 | WING  | MAIN_BOX , 4.0 , 4.0 , 1.0 , 0.0 , 0.0 , 1.0  ); ( 7 , 1.0 | WING  | MAIN_BOX , 5.0 , 4.0 , 1.0 , 0.0 , 0.0 , 1.0  ); ( 7 , 1.0 | WING  | MAIN_BOX , 6.0 , 4.0 , 1.0 , 0.0 , 0.0 , 1.0  ); ( 7 , 1.0 | WING  | MAIN_BOX , 7.0 , 4.0 , 1.0 , 0.0 , 0.0 , 1.0  ); ( 7 , 1.0 | WING  | MAIN_BOX , 8.0 , 4.0 , 1.0 , 0.0 , 0.0 , 1.0  ); ( 7 , 1.0 | WING  | MAIN_BOX , 9.0 , 4.0 , 1.0 , 0.0 , 0.0 , 1.0  ); ( 7 , 1.0 | WING  | MAIN_BOX , 10.0 , 4.0 , 1.0 , 0.0 , 0.0 , 1.0  ); ( 7 , 1.0 | WING  | MAIN_BOX , 0.0 , 5.0 , 1.0 , 0.0 , 0.0 , 1.0  ); ( 7 , 1.0 | WING  | MAIN_BOX , 1.0 , 5.0 , 1.0 , 0.0 , 0.0 , 1.0  ); ( 7 , 1.0 | WING  | MAIN_BOX , 2.0 , 5.0 , 1.0 , 0.0 , 0.0 , 1.0  ); ( 7 , 1.0 | WING  | MAIN_BOX , 3.0 , 5.0 , 1.0 , 0.0 , 0.0 , 1.0  ); ( 7 , 1.0 | WING  | MAIN_BOX , 4.0 , 5.0 , 1.0 , 0.0 , 0.0 , 1.0  ); ( 7 , 1.0 | WING  | MAIN_BOX , 5.0 , 5.0 , 1.0 , 0.0 , 0.0 , 1.0  ); ( 7 , 1.0 | WING  | MAIN_BOX , 6.0 , 5.0 , 1.0 , 0.0 , 0.0 , 1.0  ); ( 7 , 1.0 | WING  | MAIN_BOX , 7.0 , 5.0 , 1.0 , 0.0 , 0.0 , 1.0  ); ( 7 , 1.0 | WING  | MAIN_BOX , 8.0 , 5.0 , 1.0 , 0.0 , 0.0 , 1.0  ); ( 7 , 1.0 | WING  | MAIN_BOX , 9.0 , 5.0 , 1.0 , 0.0 , 0.0 , 1.0  ); ( 7 , 1.0 | WING  | MAIN_BOX , 10.0 , 5.0 , 1.0 , 0.0 , 0.0 , 1.0  ); ( 7 , 1.0 | WING  | MAIN_BOX , 0.0 , 6.0 , 1.0 , 0.0 , 0.0 , 1.0  ); ( 7 , 1.0 | WING  | MAIN_BOX , 1.0 , 6.0 , 1.0 , 0.0 , 0.0 , 1.0  ); ( 7 , 1.0 | WING  | MAIN_BOX , 2.0 , 6.0 , 1.0 , 0.0 , 0.0 , 1.0  ); ( 7 , 1.0 | WING  | MAIN_BOX , 3.0 , 6.0 , 1.0 , 0.0 , 0.0 , 1.0  ); ( 7 , 1.0 | WING  | MAIN_BOX , 4.0 , 6.0 , 1.0 , 0.0 , 0.0 , 1.0  ); ( 7 , 1.0 | WING  | MAIN_BOX , 5.0 , 6.0 , 1.0 , 0.0 , 0.0 , 1.0  ); ( 7 , 1.0 | WING  | MAIN_BOX , 6.0 , 6.0 , 1.0 , 0.0 , 0.0 , 1.0  ); ( 7 , 1.0 | WING  | MAIN_BOX , 7.0 , 6.0 , 1.0 , 0.0 , 0.0 , 1.0  ); ( 7 , 1.0 | WING  | MAIN_BOX , 8.0 , 6.0 , 1.0 , 0.0 , 0.0 , 1.0  ); ( 7 , 1.0 | WING  | MAIN_BOX , 9.0 , 6.0 , 1.0 , 0.0 , 0.0 , 1.0  ); ( 7 , 1.0 | WING  | MAIN_BOX , 10.0 , 6.0 , 1.0 , 0.0 , 0.0 , 1.0  ); ( 7 , 1.0 | WING  | MAIN_BOX , 0.0 , 7.0 , 1.0 , 0.0 , 0.0 , 1.0  ); ( 7 , 1.0 | WING  | MAIN_BOX , 1.0 , 7.0 , 1.0 , 0.0 , 0.0 , 1.0  ); ( 7 , 1.0 | WING  | MAIN_BOX , 2.0 , 7.0 , 1.0 , 0.0 , 0.0 , 1.0  ); ( 7 , 1.0 | WING  | MAIN_BOX , 3.0 , 7.0 , 1.0 , 0.0 , 0.0 , 1.0  ); ( 7 , 1.0 | WING  | MAIN_BOX , 4.0 , 7.0 , 1.0 , 0.0 , 0.0 , 1.0  ); ( 7 , 1.0 | WING  | MAIN_BOX , 5.0 , 7.0 , 1.0 , 0.0 , 0.0 , 1.0  ); ( 7 , 1.0 | WING  | MAIN_BOX , 6.0 , 7.0 , 1.0 , 0.0 , 0.0 , 1.0  ); ( 7 , 1.0 | WING  | MAIN_BOX , 7.0 , 7.0 , 1.0 , 0.0 , 0.0 , 1.0  ); ( 7 , 1.0 | WING  | MAIN_BOX , 8.0 , 7.0 , 1.0 , 0.0 , 0.0 , 1.0  ); ( 7 , 1.0 | WING  | MAIN_BOX , 9.0 , 7.0 , 1.0 , 0.0 , 0.0 , 1.0  ); ( 7 , 1.0 | WING  | MAIN_BOX , 10.0 , 7.0 , 1.0 , 0.0 , 0.0 , 1.0  ); ( 7 , 1.0 | WING  | MAIN_BOX , 0.0 , 8.0 , 1.0 , 0.0 , 0.0 , 1.0  ); ( 7 , 1.0 | WING  | MAIN_BOX , 1.0 , 8.0 , 1.0 , 0.0 , 0.0 , 1.0  ); ( 7 , 1.0 | WING  | MAIN_BOX , 2.0 , 8.0 , 1.0 , 0.0 , 0.0 , 1.0  ); ( 7 , 1.0 | WING  | MAIN_BOX , 3.0 , 8.0 , 1.0 , 0.0 , 0.0 , 1.0  ); ( 7 , 1.0 | WING  | MAIN_BOX , 4.0 , 8.0 , 1.0 , 0.0 , 0.0 , 1.0  ); ( 7 , 1.0 | WING  | MAIN_BOX , 5.0 , 8.0 , 1.0 , 0.0 , 0.0 , 1.0  ); ( 7 , 1.0 | WING  | MAIN_BOX , 6.0 , 8.0 , 1.0 , 0.0 , 0.0 , 1.0  ); ( 7 , 1.0 | WING  | MAIN_BOX , 7.0 , 8.0 , 1.0 , 0.0 , 0.0 , 1.0  ); ( 7 , 1.0 | WING  | MAIN_BOX , 8.0 , 8.0 , 1.0 , 0.0 , 0.0 , 1.0  ); ( 7 , 1.0 | WING  | MAIN_BOX , 9.0 , 8.0 , 1.0 , 0.0 , 0.0 , 1.0  ); ( 7 , 1.0 | WING  | MAIN_BOX , 10.0 , 8.0 , 1.0 , 0.0 , 0.0 , 1.0  )
DV_VALUE_NEW= 0
DV_VALUE_OLD= 0
VALUE_OBJFUNC_FILENAME= of_eval.dat
NUMBER_PART= 2
